81

O       0.000000000000000      0.000000000000000      0.119262000000000
H       0.000000000000000      0.763239000000000      8.835797978309193
H       0.000000000000000      8.549605978309193      8.835797978309193
O       0.000000000000000      0.000000000000000      3.223543659436398
H       0.000000000000000      0.763239000000000      2.627234659436398
H       0.000000000000000      8.549605978309193      2.627234659436398
O       0.000000000000000      0.000000000000000      6.327825318872796
H       0.000000000000000      0.763239000000000      5.731516318872797
H       0.000000000000000      8.549605978309193      5.731516318872797
O       0.000000000000000      3.104281659436398      0.119262000000000
H       0.000000000000000      3.867520659436398      8.835797978309193
H       0.000000000000000      2.341042659436398      8.835797978309193
O       0.000000000000000      3.104281659436398      3.223543659436398
H       0.000000000000000      3.867520659436398      2.627234659436398
H       0.000000000000000      2.341042659436398      2.627234659436398
O       0.000000000000000      3.104281659436398      6.327825318872796
H       0.000000000000000      3.867520659436398      5.731516318872797
H       0.000000000000000      2.341042659436398      5.731516318872797
O       0.000000000000000      6.208563318872796      0.119262000000000
H       0.000000000000000      6.971802318872796      8.835797978309193
H       0.000000000000000      5.445324318872796      8.835797978309193
O       0.000000000000000      6.208563318872796      3.223543659436398
H       0.000000000000000      6.971802318872796      2.627234659436398
H       0.000000000000000      5.445324318872796      2.627234659436398
O       0.000000000000000      6.208563318872796      6.327825318872796
H       0.000000000000000      6.971802318872796      5.731516318872797
H       0.000000000000000      5.445324318872796      5.731516318872797
O       3.104281659436398      0.000000000000000      0.119262000000000
H       3.104281659436398      0.763239000000000      8.835797978309193
H       3.104281659436398      8.549605978309193      8.835797978309193
O       3.104281659436398      0.000000000000000      3.223543659436398
H       3.104281659436398      0.763239000000000      2.627234659436398
H       3.104281659436398      8.549605978309193      2.627234659436398
O       3.104281659436398      0.000000000000000      6.327825318872796
H       3.104281659436398      0.763239000000000      5.731516318872797
H       3.104281659436398      8.549605978309193      5.731516318872797
O       3.104281659436398      3.104281659436398      0.119262000000000
H       3.104281659436398      3.867520659436398      8.835797978309193
H       3.104281659436398      2.341042659436398      8.835797978309193
O       3.104281659436398      3.104281659436398      3.223543659436398
H       3.104281659436398      3.867520659436398      2.627234659436398
H       3.104281659436398      2.341042659436398      2.627234659436398
O       3.104281659436398      3.104281659436398      6.327825318872796
H       3.104281659436398      3.867520659436398      5.731516318872797
H       3.104281659436398      2.341042659436398      5.731516318872797
O       3.104281659436398      6.208563318872796      0.119262000000000
H       3.104281659436398      6.971802318872796      8.835797978309193
H       3.104281659436398      5.445324318872796      8.835797978309193
O       3.104281659436398      6.208563318872796      3.223543659436398
H       3.104281659436398      6.971802318872796      2.627234659436398
H       3.104281659436398      5.445324318872796      2.627234659436398
O       3.104281659436398      6.208563318872796      6.327825318872796
H       3.104281659436398      6.971802318872796      5.731516318872797
H       3.104281659436398      5.445324318872796      5.731516318872797
O       6.208563318872796      0.000000000000000      0.119262000000000
H       6.208563318872796      0.763239000000000      8.835797978309193
H       6.208563318872796      8.549605978309193      8.835797978309193
O       6.208563318872796      0.000000000000000      3.223543659436398
H       6.208563318872796      0.763239000000000      2.627234659436398
H       6.208563318872796      8.549605978309193      2.627234659436398
O       6.208563318872796      0.000000000000000      6.327825318872796
H       6.208563318872796      0.763239000000000      5.731516318872797
H       6.208563318872796      8.549605978309193      5.731516318872797
O       6.208563318872796      3.104281659436398      0.119262000000000
H       6.208563318872796      3.867520659436398      8.835797978309193
H       6.208563318872796      2.341042659436398      8.835797978309193
O       6.208563318872796      3.104281659436398      3.223543659436398
H       6.208563318872796      3.867520659436398      2.627234659436398
H       6.208563318872796      2.341042659436398      2.627234659436398
O       6.208563318872796      3.104281659436398      6.327825318872796
H       6.208563318872796      3.867520659436398      5.731516318872797
H       6.208563318872796      2.341042659436398      5.731516318872797
O       6.208563318872796      6.208563318872796      0.119262000000000
H       6.208563318872796      6.971802318872796      8.835797978309193
H       6.208563318872796      5.445324318872796      8.835797978309193
O       6.208563318872796      6.208563318872796      3.223543659436398
H       6.208563318872796      6.971802318872796      2.627234659436398
H       6.208563318872796      5.445324318872796      2.627234659436398
O       6.208563318872796      6.208563318872796      6.327825318872796
H       6.208563318872796      6.971802318872796      5.731516318872797
H       6.208563318872796      5.445324318872796      5.731516318872797
81

O       9.312671005994183      0.000133941691866      0.144732483445747
H       9.312757227639054      1.002680081514529      8.635392075335448
H       9.311898472958255      8.309190568820659      8.636226626912867
O       9.312818513492719      0.000171391853502      3.248919852037223
H       9.312409869175902      1.003522448977840      2.426805436019210
H       9.312713261420805      8.310097409177091      2.426584150013299
O       0.000082417407722      9.312718501473414      6.353184811024548
H       0.000243968494207      1.002388252063362      5.531083002946012
H       0.000406638671477      8.310187968036434      5.530910035268257
O       9.312807250056267      3.104002927889525      0.144522129388571
H       9.312707128197840      4.107348186331473      8.635929135424446
H       0.000530129088032      2.101810609252946      8.635178130796772
O       0.000186005573233      3.104251482047229      3.248767945151279
H       9.312292197738140      4.106843372370535      2.426837119874582
H       0.000501789966028      2.101368878224683      2.426293253252330
O       0.000048239034953      3.104345635266771      6.353398105574593
H       9.312614439813014      4.106655998272171      5.531056326837549
H       0.000433431702603      2.101272932298983      5.530404780329194
O       0.000102994281988      6.208565197014325      0.144631656104680
H       9.312677718961218      7.211409501473216      8.635312034985910
H       9.312546951532340      5.205108655715677      8.635354518967556
O       9.312803789605393      6.208445381148528      3.248732887281595
H       0.000345725990984      7.210865403223771      2.426383377892430
H       9.312515258134461      5.205310633477483      2.426933392043574
O       0.000025317509008      6.208416582449956      6.353044919209472
H       9.312723324578895      7.211522914026885      5.531418566995607
H       9.312525503170896      5.205168139327014      5.530895669218436
O       3.104253133067494      0.000278780852430      0.144447880021962
H       3.104356610911628      1.003245516011268      8.635587575001924
H       3.104883028644283      8.309953546984636      8.635036438910166
O       3.104228420253209      9.312655225333534      3.248677982636094
H       3.104564942131722      1.002907414366270      2.426847299936979
H       3.104428476427541      8.309823314051057      2.427574624140808
O       3.104401833302833      9.312803932882890      6.353103639539565
H       3.103332533478079      1.003132455458689      5.531144721160597
H       3.104780119523382      8.310491284600419      5.531092790636546
O       3.104487084203961      3.104436958722275      0.144592496668980
H       3.104052521633570      4.107307419179588      8.635726763047799
H       3.104263838759735      2.100808049938693      8.635161619980506
O       3.104234306484033      3.104274002135719      3.248866551136712
H       3.103721327692742      4.107064174253963      2.426753213874207
H       3.104330967300197      2.101287664866642      2.426553934482322
O       3.104295490956602      3.104368569215809      6.353029024485846
H       3.103976448165922      4.107595106736037      5.531442511852577
H       3.104223240894005      2.101177982172763      5.531214055035539
O       3.104121237140190      6.208662479719451      0.144479748701683
H       3.104229755980453      7.211639733729724      8.635113205660868
H       3.104734241178256      5.204850895705860      8.635670104586893
O       3.104265523205749      6.208634852581357      3.248687848659377
H       3.105253094845747      7.211418840250164      2.426581284708721
H       3.104354273810590      5.205030683304098      2.427110699823301
O       3.104351361530247      6.208538120717780      6.352893600886192
H       3.103468980865099      7.211621258719218      5.530746292656197
H       3.105020321116272      5.205425824152557      5.531000238514547
O       6.208783518180068      0.000035290360296      0.144742764633753
H       6.208382413465018      1.003130738997051      8.635801733358718
H       6.207552396680448      8.309832637064289      8.635287446311025
O       6.208621945314521      0.000038880413880      3.248752320455733
H       6.208367401233178      1.003748689536362      2.426979737629621
H       6.208450811445410      8.309506681263620      2.427129113844784
O       6.208587691531961      0.000020412666207      6.353073669634257
H       6.207975708394590      1.003551718229301      5.532452799033349
H       6.208403876603695      8.309318268253547      5.530943274274065
O       6.208317565050510      3.104116691675372      0.144485542722557
H       6.208029255731246      4.107421457758420      8.635783458459025
H       6.208482703673845      2.101027144064973      8.635968701053427
O       6.208505071598295      3.104452172197539      3.248858697056911
H       6.208499359434306      4.107690160972694      2.426841655081342
H       6.207664963394354      2.101299801719873      2.426859713633209
O       6.208406775242559      3.104375118122474      6.352877493851469
H       6.209103096047484      4.107636588803304      5.531715912412464
H       6.208813139371169      2.101052649999156      5.532033368356227
O       6.208596676465552      6.208429739856624      0.144435306174617
H       6.209265576601994      7.211759545135458      8.635904074234768
H       6.208947055627840      5.205577269737941      8.635414668285044
O       6.208639686927939      6.208640886612635      3.248699821165030
H       6.207789484558393      7.212068294812938      2.427043444567523
H       6.208195993173880      5.205597499629213      2.426652499105437
O       6.208740355032841      6.208537007339740      6.353017374562567
H       6.208208119452739      7.211388338460612      5.530594494730076
H       6.208915500120844      5.205232590269087      5.531645934267171
81

O       9.312516096005984      0.000204975654575      0.139428187933953
H       9.311981679144647      0.904319898454760      8.681897368439282
H       9.311508696383916      8.404675895162613      8.684035214669052
O       9.312395189337275      0.000558124652843      3.243274647288993
H       9.310836746102138      0.907829944098627      2.472616403954133
H       0.000342526540531      8.407704880750293      2.473904830031809
O       0.000255593218380      9.312591980328657      6.347173925494692
H       0.000102778214759      0.905285854237764      5.577744560756347
H       0.002008426080935      8.406800793692794      5.577336710141992
O       9.312765551027457      3.103652957972050      0.138422086984341
H       0.000374788692323      4.011194062252202      8.683785012848269
H       0.001027594687093      2.198751731367083      8.681083713037287
O       0.000228976298070      3.103934296916680      3.243104367436940
H       9.311858128945445      4.008653114631534      2.472623525847160
H       0.000741863044077      2.197693922973302      2.473000758474008
O       0.000107437289977      3.104552150007685      6.347798317021674
H       0.000178639197952      4.008974186991922      5.577676221434611
H       0.000386982934793      2.197524538386670      5.576997116178854
O       0.000414386303978      6.208458211970956      0.138967727165169
H       9.312042364123426      7.114504074771357      8.682571938142273
H       9.312311675049257      5.301321767232450      8.681436753141865
O       9.312589126148923      6.208080866416138      3.242821582519251
H       0.001434086849572      7.113057582333489      2.472834987863752
H       9.311417809518813      5.302244950091208      2.473149811918924
O       9.312799415436281      6.208196727276333      6.347227435799030
H       9.312145819877509      7.114895284334878      5.578182617851803
H       9.311920556620597      5.301913248518033      5.577618560647332
O       3.104426603175032      0.000641544379423      0.138484705700369
H       3.104504748714845      0.906792725309286      8.681608596752890
H       3.105483961296553      8.406771241225522      8.680372380247849
O       3.104397098757473      9.312191044136183      3.242422457076278
H       3.105121154592418      0.906446917093962      2.472763313784351
H       3.104957896972719      8.406329376937181      2.474645447773395
O       3.104785827562215      9.312815432174732      6.347428765530926
H       3.102172160620896      0.907024427907609      5.576993202777305
H       3.103907050759477      8.407729906544160      5.576727550034258
O       3.104851242206033      3.104708624666615      0.138924916137634
H       3.103581641575263      4.009365495234741      8.682727894973143
H       3.102366752449312      2.196234340846144      8.681806300305320
O       3.104016044947788      3.104350782034826      3.242897706878819
H       3.102554175979900      4.009361264269036      2.472770862711457
H       3.104536328222882      2.197594305207394      2.473382731941665
O       3.104173176919920      3.104448780970730      6.346994877300909
H       3.103042525400400      4.011477440964915      5.578126936422543
H       3.104223407650942      2.198205865717596      5.576936381664814
O       3.103576373600187      6.208590257369186      0.138604344239513
H       3.102531147121130      7.114733280930812      8.680869779781693
H       3.106100039613890      5.301991249304898      8.682538099162510
O       3.104305532167446      6.208755371797060      3.242804494703118
H       3.106395022774600      7.114769163897453      2.472769610245112
H       3.104939954286792      5.301479090245484      2.473679365434468
O       3.104684903534647      6.208518900239741      6.346623642852281
H       3.103170901277448      7.114852710628013      5.576667829941392
H       3.106320153083119      5.301906335534278      5.576940838919221
O       6.209027226995631      0.000185050161547      0.139300273035375
H       6.208642717470694      0.907187500220124      8.683036081012913
H       6.206987421798991      8.407137070072153      8.681737063315644
O       6.208663261249820      0.000141553820579      3.242868678486809
H       6.207945354133383      0.907361433438900      2.473566586028263
H       6.208711070555315      8.405633966492408      2.473727129258599
O       6.208640600684935      0.000161491593749      6.347189504202054
H       6.208010904816383      0.906179954311554      5.580009639771345
H       6.208193172223886      8.404580531116219      5.576892627502126
O       6.208143885835220      3.104026392384880      0.138672583069444
H       6.207284243946703      4.010469560183194      8.682357460414600
H       6.208124749706115      2.198967576794683      8.682643255538366
O       6.208294635939188      3.104543498083036      3.242986227449892
H       6.208835395423463      4.011860317801926      2.473732168943326
H       6.206553598481737      2.198048130992403      2.473679265234866
O       6.208025661337658      3.104504005184837      6.346806504669465
H       6.210032634169909      4.010161459297657      5.578648137248233
H       6.208307583044265      2.197780167111921      5.580099213817915
O       6.208803874585026      6.208094455840000      0.138341354659088
H       6.209452090651866      7.115687328975632      8.682226064280018
H       6.210018293282833      5.303121515324535      8.682664830186987
O       6.208526800939961      6.208768433693400      3.242826627535802
H       6.206399789930660      7.115530654492078      2.473644086701010
H       6.207755953784227      5.303014268301357      2.473571745145233
O       6.209122148668070      6.208660520190874      6.346968058026993
H       6.208555681001616      7.114912381562880      5.576570515233354
H       6.209509642790532      5.302508492166910      5.577866569830844
81

O       9.312409079057723      0.000204253391264      0.134804211258198
H       9.310567163691413      0.783485936152703      8.723671035168580
H       9.311493496840306      8.526130115998736      8.730289415301968
O       9.311806578851051      0.001267765742109      3.238044813134491
H       9.308022589212074      0.785610214838317      2.517839143170777
H       0.002252264739370      8.527655115547581      2.517881544630374
O       0.000284087153886      9.312494954221773      6.341534739493881
H       9.312620731618233      0.784968109608610      5.620572771427056
H       0.005010812175500      8.526831591802946      5.621164856127482
O       9.312592121553635      3.103098744530408      0.132524955110164
H       0.002244605254110      3.891398728540053      8.727905858901366
H       0.002384453523749      2.319238936836820      8.722164485185660
O       0.000399020046185      3.103309496004870      3.238048773693379
H       9.309548714896856      3.886357051206316      2.514006095906450
H       0.000680050013373      2.318966239940005      2.516943188502790
O       0.000112151821288      3.104409384457480      6.342416103601786
H       0.001655478478307      3.888819920439875      5.619479263767596
H       9.312809333622173      2.319717072138213      5.622589452227736
O       0.000733840293413      6.208380707906674      0.133628401704326
H       9.310692211105417      6.993823766529404      8.725979632717980
H       9.312244936513427      5.423964315660257      8.726455717404933
O       9.312598224643549      6.207806101692134      3.237288008840280
H       0.001697450267104      6.993032839935381      2.515433804066381
H       9.310067627882892      5.423664843194895      2.515684346109293
O       9.312414613929194      6.207886218739600      6.341994098579086
H       9.311626416948247      6.993030910013116      5.621484565433756
H       9.311844947203156      5.423158677326492      5.621020469455479
O       3.104582721015056      0.000878319535018      0.132838467445363
H       3.104749755789713      0.786213115948185      8.725675999174037
H       3.106009673564696      8.530491249591098      8.724226577640673
O       3.104849091025070      9.312065388039763      3.236805094376083
H       3.105631870603873      0.783945930950531      2.516629349061474
H       3.106591657922348      8.524917928688295      2.516511957826596
O       3.105139127596925      0.000230121983650      6.342278268888089
H       3.100741593043074      0.783941448083950      5.621553538851398
H       3.102459879978378      8.529441863440601      5.619788027759002
O       3.105058595242656      3.104436626382704      0.133522569577024
H       3.102322832864850      3.890071856975327      8.724331112584991
H       3.099071488475135      2.318930434305253      8.728507592865174
O       3.103815771568144      3.104515932552089      3.237328577131903
H       3.100768355002272      3.888532928455087      2.514924760961641
H       3.105417074000959      2.318255090204849      2.518023711432573
O       3.104250496854085      3.104241599754189      6.341467892089378
H       3.101218191492322      3.890053138110948      5.622031593726025
H       3.103231493046901      2.320340499960904      5.619860278797017
O       3.102826031070951      6.208582014188197      0.133085822044266
H       3.099538599421658      6.992917151775405      8.724927890709619
H       3.107912989557266      5.422972821162333      8.725136881049796
O       3.104487207579286      6.208838248768400      3.237524058943122
H       3.107245291408595      6.993052064887282      2.516002383611271
H       3.105212031562951      5.423192262239405      2.518042820685579
O       3.105162137964343      6.208558398968564      6.340821621068847
H       3.101789864415177      6.993781080171088      5.620803649299999
H       3.107385088049217      5.424017114909315      5.619855891529724
O       6.209099196568301      0.000161402804666      0.134098185775501
H       6.210372405311084      0.786626556408632      8.728144515802912
H       6.207297165694081      8.530849733041753      8.723234688989930
O       6.208811660633610      0.000112180981193      3.237411110821479
H       6.207421179331268      0.785438970333121      2.517666429085637
H       6.209695235573522      8.528014200176504      2.517679835895080
O       6.208981165755346      9.312674088845966      6.341328573427147
H       6.207476085770054      0.786494657067727      5.620202535192041
H       6.208278680917251      8.527490415036917      5.623768243482788
O       6.208163674987565      3.104148253516675      0.133498928548009
H       6.206491179598025      3.889236771129001      8.724987926746882
H       6.206528567334077      2.318903051317644      8.723801627705965
O       6.207994479309469      3.104800185818645      3.237481815685793
H       6.208856768270227      3.891068065581792      2.518987645951716
H       6.204934624127594      2.319442271233335      2.516896794835241
O       6.207817877501592      3.104807674230386      6.341389504831930
H       6.211494840908960      3.890105838555437      5.618730341182502
H       6.208018889552351      2.316167552726322      5.622418097930118
O       6.209125617176084      6.207962590929267      0.132244681583689
H       6.209162324293510      6.994966775487892      8.727245267073121
H       6.210593069514928      5.420917539565881      8.724540231331940
O       6.208404431400988      6.209054884767518      3.237662653546193
H       6.203750975335764      6.993287825936917      2.515627401171916
H       6.207920417857924      5.423846169106649      2.516342003526277
O       6.209615508496802      6.208814841591106      6.340948229562530
H       6.208285824475865      6.994003181625343      5.621260178178523
H       6.210373789502507      5.424311924354925      5.619103228187832
81

O       9.312527087893033      0.000338158762597      0.158990804798001
H       9.308970555802036      0.938484307191919      8.535879596727405
H       9.310553850074919      8.369858580429844      8.547389541509110
O       9.310922891340864      0.001920680272902      3.261947411775355
H       9.303809925202307      0.940403402410034      2.333695638589555
H       0.004337405614888      8.368874971185567      2.330956355569913
O       0.000124127027604      9.312513822683895      6.364847895414179
H       9.312475579003994      0.939437170002446      5.435010041298729
H       0.008709048908130      8.370313494285307      5.436068735570188
O       9.312203517438160      3.102438177230253      0.155043438250089
H       0.004225353675125      4.046053186729976      8.544944560148380
H       0.004313478916572      2.164659222989753      8.534097163863423
O       0.000870163243997      3.102533015415665      3.261715332647994
H       9.306738300276129      4.038322200545535      2.326527875380286
H       0.001771558095484      2.163627469258874      2.331630990427550
O       0.000019406491708      3.104203806615259      6.365926925405682
H       0.003308152193763      4.045174158332978      5.432165936401416
H       9.312119572123720      2.164918263821009      5.439530495796411
O       0.001006202939237      6.208304990594003      0.157361814970792
H       9.308484052331753      7.150117672505409      8.538996153527975
H       9.310410127555141      5.268907700030594      8.541608543162095
O       9.312767039880072      6.207788599031190      3.260568422431171
H       0.002408197993060      7.148935001234434      2.330862328043675
H       9.307641318134657      5.270105008884965      2.329448843290470
O       9.311815200646443      6.207583155020093      6.365711093473957
H       9.310586215365655      7.147648441153837      5.435864319090902
H       9.311646516765979      5.267348428038501      5.434515163826471
O       3.104761947103624      0.000796128162151      0.155949423600463
H       3.105263188845840      0.943384371886653      8.539514177128142
H       3.105900477126757      8.377050695419753      8.537125552544351
O       3.105479985860526      9.312035570891437      3.260199500885326
H       3.106199929015876      0.936831100878446      2.331476431783710
H       3.108873863715982      8.367400854721151      2.329765466535606
O       3.105371277151601      0.000650275272242      6.366149043196187
H       3.098323351814944      0.938522288588664      5.437025660981057
H       3.100727625104257      8.373709738683473      5.432376826062449
O       3.105213794399363      3.104397321908032      0.157137312883296
H       3.100608917176728      4.047871979577611      8.537219950645344
H       3.094398190909625      2.163949087785366      8.544647531244241
O       3.103491724058478      3.104908367133631      3.260758059517450
H       3.097871572583412      4.043598512346307      2.327742792377211
H       3.107822647518830      2.164405047367633      2.333952608981420
O       3.104419118287364      3.103828204576526      6.365107989749694
H       3.099101796765626      4.046921131057754      5.436461531210028
H       3.102252366802433      2.164546676868023      5.433537434576761
O       3.102034577214451      6.208895818683147      0.156328704905203
H       3.095257879234397      7.147926013700570      8.540816659384177
H       3.110135478479855      5.265229693050615      8.536999916131112
O       3.104848318219788      6.209046090400667      3.261268925010233
H       3.110262952448685      7.149337852547283      2.328474680285828
H       3.106557302636928      5.267167286810055      2.333074816226357
O       3.105696197259438      6.208676043559954      6.363944335975766
H       3.099458666369974      7.150222660832886      5.435682315295439
H       3.109144124658090      5.269473343315406      5.433492465301133
O       6.209126256698163      9.312616506815855      0.157813243390778
H       6.211866619390731      0.943115585547935      8.544312080138450
H       6.207118164121660      8.377103026391817      8.533630152126548
O       6.209135256305526      0.000058621796669      3.261089154836943
H       6.206236478990604      0.942421144752595      2.332241851495550
H       6.211386142781149      8.373433919185368      2.330782251126544
O       6.209541365488275      9.312360590591485      6.364519802798815
H       6.206174820201275      0.944355653475075      5.429638194045925
H       6.208522923246544      8.373728180779676      5.440841338655562
O       6.208381323563878      3.104574207543006      0.157061604661511
H       6.206429642729097      4.043453862182492      8.538512762521139
H       6.204594845626712      2.164426285561972      8.537581691394385
O       6.207839280097467      3.105083011167727      3.260950838911170
H       6.208448447822061      4.049113536863977      2.333883510934588
H       6.202285730796140      2.163967954001506      2.330560044347139
O       6.207627723015113      3.104879740218586      6.364470715742493
H       6.215027048191860      4.042329374570494      5.431728360738393
H       6.207099804657898      2.160820427155879      5.438962269054610
O       6.209565615396480      6.207785407463570      0.154589063498237
H       6.208571762737823      7.150675652913554      8.545015026648269
H       6.211562378978336      5.262108535404707      8.537291005563121
O       6.208401161709627      6.209331038129027      3.261223472408276
H       6.199159182192098      7.145668723366851      2.330214037961277
H       6.207849901148660      5.268878896553715      2.329564234046107
O       6.209895665680978      6.209078368728342      6.363716283951917
H       6.206583353013498      7.150341364450640      5.435745257714449
H       6.212424125748542      5.269062522857806      5.431079757626312
